Version 4
SHEET 1 880 680
WIRE 208 48 80 48
WIRE 352 48 208 48
WIRE 208 80 208 48
WIRE 352 80 352 48
WIRE 80 128 80 48
WIRE 176 160 160 160
WIRE 208 160 176 160
WIRE 432 160 352 160
WIRE 80 272 80 208
WIRE 208 272 208 240
WIRE 208 272 80 272
WIRE 352 272 352 240
WIRE 352 272 208 272
WIRE 208 304 208 272
FLAG 208 48 N1
FLAG 176 160 N2
FLAG 432 160 N3
FLAG 208 304 0
SYMBOL voltage 80 112 R0
WINDOW 123 0 0 Left 0
WINDOW 39 0 0 Left 0
SYMATTR InstName V1
SYMATTR Value 6
SYMBOL res 192 64 R0
SYMATTR InstName R1
SYMATTR Value 100
SYMBOL res 192 144 R0
SYMATTR InstName R2
SYMATTR Value 220
SYMBOL res 336 64 R0
SYMATTR InstName R3
SYMATTR Value 120
SYMBOL res 336 144 R0
SYMATTR InstName R4
SYMATTR Value 68
TEXT 46 328 Left 2 !.op
